Circuit: * C:\Users\roshan\eSim-Workspace\ksa8\ksa8.cir

Fatal Error: Missing node(s) for uniform RC-line U3
